units metal     # mass = g/mole, distance = Å, time = ps, energy = eV, force = eV/Å
atom_style atomic
read_data /home/epsilon/vld/univ5120/VLD/Thesis/llms-for-lammps/structures/example.data
Reading data file ...
  orthogonal box = (0 0 0) to (15.854536 15.854536 15.854536)
  reading atoms ...
  200 atoms
mass * 12.011   # all atoms are Carbon and therefore have mass ~12

pair_style quip
pair_coeff * * /home/epsilon/vld/univ5120/VLD/Thesis/llms-for-lammps/data/carbon.xml "" 6

neigh_modify every 1 delay 0 check yes
timestep 0.001

variable nAtoms equal atoms

fix removeMomentum all momentum 1 linear 1 1 1

compute T all temp
variable P equal press
variable v equal vol
variable PE_Atom equal c_PE/v_nAtoms

fix TempAve all ave/time 100 1 100 c_T
fix PressAve all ave/time 100 1 100 v_P
fix vAve all ave/time 100 1 100 v_v
fix PEAve_Atom all ave/time 100 1 100 v_PE_Atom

compute PE all pe pair
compute MSD all msd

thermo_style custom step cpu temp f_TempAve press f_PressAve f_PEAve_Atom vol f_vAve c_MSD[4]
thermo_modify flush yes
thermo 100

dump traj all atom 100 /home/epsilon/vld/univ5120/VLD/Thesis/llms-for-lammps/run/run_id0/dump/dump_file.dump.*.dat

velocity all create 3000 42

run 0
  update every 1 steps, delay 0 steps, check yes
Step          CPU            Temp        f_TempAve        Press        f_PressAve    f_PEAve_Atom      Volume         f_vAve        c_MSD[4]
0   0              3000           3000           4801.15        4801.15       -157.8272       3985.296       3985.296       0
Loop time of 1.86416e-05 on 128 procs for 0 steps with 200 atoms

# PHASES:

# Phase 1:
fix integrate all nvt temp 5000 5000 0.1
run 50000
Step          CPU            Temp        f_TempAve        Press        f_PressAve    f_PEAve_Atom      Volume         f_vAve        c_MSD[4]
0   0              3000           3000           4801.15        4801.15       -157.8272       3985.296       3985.296       0
Averages over the last 251 of 501 rows, steps 25000 to 50000:
Temp f_TempAve Press f_PressAve f_PEAve_Atom Volume f_vAve c_MSD[4]
4991.25 4991.25 5933.73 5933.73 -156.276 3985.3 3985.3 604.259
Loop time of 2103.37 on 128 procs for 50000 steps with 200 atoms

unfix integrate

# Phase 2:
fix integrate all nvt temp 5000 3000 0.1
run 50000
Step          CPU            Temp        f_TempAve        Press        f_PressAve    f_PEAve_Atom      Volume         f_vAve        c_MSD[4]
50000   0              5311.8722      5311.8722      29233.047      29233.047     -156.24653      3985.296       3985.296       851.05984
Averages over the last 247 of 494 rows, steps 74700 to 99300:
Temp f_TempAve Press f_PressAve f_PEAve_Atom Volume f_vAve c_MSD[4]
3551.67 3551.67 -7172.28 -7172.28 -157.304 3985.3 3985.3 1165.87
