units metal     # mass = g/mole, distance = Å, time = ps, energy = eV, force = eV/Å
atom_style atomic
read_data /home/epsilon/vld/univ5120/VLD/Thesis/llms-for-lammps/structures/example.data
Reading data file ...
  orthogonal box = (0 0 0) to (15.854536 15.854536 15.854536)
  reading atoms ...
  200 atoms
mass * 12.011   # all atoms are Carbon and therefore have mass ~12

pair_style quip
pair_coeff * * /home/epsilon/vld/univ5120/VLD/Thesis/llms-for-lammps/data/carbon.xml "" 6

neigh_modify every 1 delay 0 check yes
timestep 0.001

variable nAtoms equal atoms

fix removeMomentum all momentum 1 linear 1 1 1

compute T all temp
variable P equal press
variable v equal vol
variable PE_Atom equal c_PE/v_nAtoms

fix TempAve all ave/time 100 1 100 c_T
fix PressAve all ave/time 100 1 100 v_P
fix vAve all ave/time 100 1 100 v_v
fix PEAve_Atom all ave/time 100 1 100 v_PE_Atom

compute PE all pe pair
compute MSD all msd

thermo_style custom step cpu temp f_TempAve press f_PressAve f_PEAve_Atom vol f_vAve c_MSD[4]
thermo_modify flush yes
thermo 100

dump traj all atom 100 /home/epsilon/vld/univ5120/VLD/Thesis/llms-for-lammps/run/run_id1/dump/dump_file.dump.*.dat

velocity all create 3000 42

run 0
  update every 1 steps, delay 0 steps, check yes
Step          CPU            Temp        f_TempAve        Press        f_PressAve    f_PEAve_Atom      Volume         f_vAve        c_MSD[4]
0   0              3000           3000           4801.15        4801.15       -157.8272       3985.296       3985.296       0
Loop time of 2.33025e-05 on 128 procs for 0 steps with 200 atoms

# (AI) PHASES:

# Phase 1:
fix integrate all nvt temp 3500 3500 0.1
run 50000
Step          CPU            Temp        f_TempAve        Press        f_PressAve    f_PEAve_Atom      Volume         f_vAve        c_MSD[4]
0   0              3000           3000           4801.15        4801.15       -157.8272       3985.296       3985.296       0
Averages over the last 251 of 501 rows, steps 25000 to 50000:
Temp f_TempAve Press f_PressAve f_PEAve_Atom Volume f_vAve c_MSD[4]
3511.65 3511.65 14400.2 14400.2 -157.332 3985.3 3985.3 192.8
Loop time of 2240.1 on 128 procs for 50000 steps with 200 atoms

unfix integrate

# Phase 2:
fix integrate all nvt temp 3500 1500 0.1
run 50000
Step          CPU            Temp        f_TempAve        Press        f_PressAve    f_PEAve_Atom      Volume         f_vAve        c_MSD[4]
50000   0              3560.6015      3560.6015      19607.038      19607.038     -157.32917      3985.296       3985.296       423.31485
Averages over the last 251 of 501 rows, steps 75000 to 100000:
Temp f_TempAve Press f_PressAve f_PEAve_Atom Volume f_vAve c_MSD[4]
1987.65 1987.65 6892.83 6892.83 -157.659 3985.3 3985.3 193.59
Loop time of 2193.3 on 128 procs for 50000 steps with 200 atoms

unfix integrate

# Phase 3:
fix integrate all nvt temp 1500 800 0.1
run 50000
Step          CPU            Temp        f_TempAve        Press        f_PressAve    f_PEAve_Atom      Volume         f_vAve        c_MSD[4]
100000   0              1471.7327      1471.7327      10509.433      10509.433     -157.73928      3985.296       3985.296       222.2237
Averages over the last 251 of 501 rows, steps 125000 to 150000:
Temp f_TempAve Press f_PressAve f_PEAve_Atom Volume f_vAve c_MSD[4]
978.338 978.338 4706.54 4706.54 -157.808 3985.3 3985.3 35.5246
Loop time of 2183.67 on 128 procs for 50000 steps with 200 atoms

unfix integrate

# Phase 4:
fix integrate all nvt temp 800 300 0.1
run 50000
Step          CPU            Temp        f_TempAve        Press        f_PressAve    f_PEAve_Atom      Volume         f_vAve        c_MSD[4]
150000   0              790.2973       790.2973      -5897.8686     -5897.8686     -157.8269       3985.296       3985.296       92.467531
Averages over the last 251 of 501 rows, steps 175000 to 200000:
Temp f_TempAve Press f_PressAve f_PEAve_Atom Volume f_vAve c_MSD[4]
426.218 426.218 2762.47 2762.47 -157.883 3985.3 3985.3 719.074
Loop time of 2171.8 on 128 procs for 50000 steps with 200 atoms

unfix integrate

# Phase 5:
fix integrate all nvt temp 300 300 0.1
run 50000
Step          CPU            Temp        f_TempAve        Press        f_PressAve    f_PEAve_Atom      Volume         f_vAve        c_MSD[4]
200000   0              280.50696      280.50696      5103.6107      5103.6107     -157.90208      3985.296       3985.296       864.97938
Averages over the last 251 of 501 rows, steps 225000 to 250000:
Temp f_TempAve Press f_PressAve f_PEAve_Atom Volume f_vAve c_MSD[4]
302.227 302.227 2213.91 2213.91 -157.9 3985.3 3985.3 1113.57
Loop time of 2202.61 on 128 procs for 50000 steps with 200 atoms

unfix integrate

# The above script has achieved the target SOAP similarity. The melting temperatures and cooling rates have been adjusted to achieve the desired structure.
